.MODEL 2N3903 NPN(IS=6.734f ISE=6.734f ISC=0 XTI=3 BF=335.2 BR=0.8073 IKF=60.26m IKR=0 XTB=1.5 VAF=74.03 VAR=28 VJE=0.65 VJC=0.65 RE=0.1 RC=1 RB=10 CJE=4.493p CJC=3.638p XCJC=0.75 FC=0.5 NF=1 NR=1 NE=1.208 NC=2 MJE=0.2593 MJC=0.3085 TF=300.8p TR=243.9n ITF=0.4 VTF=4 XTF=2 EG=1.11 VCEO=60 ICRATING=200M)